RepresentativeLVNetworks-0.2.0/data/H/Lines.dss
New Line.line0 Units=km Length=0.07565000000000001 bus1=08.1.2.3 bus2=09.1.2.3 switch=n enabled=y phases=3 Linecode=unknown_linecode_3
New Line.line1 Units=km Length=0.001 bus1=09.1.2.3 bus2=06.1.2.3 switch=n enabled=y phases=3 Linecode=66_HDCU_(19/2.11)_3
New Line.line10 Units=km Length=0.00134 bus1=17.1.2.3 bus2=18.1.2.3 switch=n enabled=y phases=3 Linecode=unknown_linecode_3
New Line.line11 Units=km Length=0.03612 bus1=18.1.2.3 bus2=23.1.2.3 switch=n enabled=y phases=3 Linecode=unknown_linecode_3
New Line.line12 Units=km Length=0.03733 bus1=14.1.2.3 bus2=19.1.2.3 switch=n enabled=y phases=3 Linecode=unknown_linecode_3
New Line.line13 Units=km Length=0.0363 bus1=19.1.2.3 bus2=20.1.2.3 switch=n enabled=y phases=3 Linecode=unknown_linecode_3
New Line.line14 Units=km Length=0.04011 bus1=20.1.2.3 bus2=25.1.2.3 switch=n enabled=y phases=3 Linecode=unknown_linecode_3
New Line.line15 Units=km Length=0.02187 bus1=14.1.2.3 bus2=21.1.2.3 switch=n enabled=y phases=3 Linecode=unknown_linecode_3
New Line.line16 Units=km Length=0.02275 bus1=21.1.2.3 bus2=22.1.2.3 switch=n enabled=y phases=3 Linecode=unknown_linecode_3
New Line.line17 Units=km Length=0.002 bus1=22.1.2.3 bus2=0968.1.2.3 switch=n enabled=y phases=3 Linecode=unknown_linecode_3
New Line.line18 Units=km Length=0.0247 bus1=23.1.2.3 bus2=24.1.2.3 switch=n enabled=y phases=3 Linecode=unknown_linecode_3
New Line.line19 Units=km Length=0.00175 bus1=10.1.2.3 bus2=0966.1.2.3 switch=n enabled=y phases=3 Linecode=66_HDCU_(19/2.11)_3
New Line.line2 Units=km Length=0.001 bus1=06.1.2.3 bus2=10.1.2.3 switch=n enabled=y phases=3 Linecode=66_HDCU_(19/2.11)_3
New Line.line20 Units=km Length=0.01267 bus1=10.1.2.3 bus2=0969.1.2.3 switch=n enabled=y phases=3 Linecode=unknown_linecode_3
New Line.line21 Units=km Length=0.02977 bus1=24.1.2.3 bus2=27.1.2.3 switch=n enabled=y phases=3 Linecode=unknown_linecode_3
New Line.line22 Units=km Length=0.03432 bus1=25.1.2.3 bus2=26.1.2.3 switch=n enabled=y phases=3 Linecode=unknown_linecode_3
New Line.line23 Units=km Length=0.042159999999999996 bus1=26.1.2.3 bus2=29.1.2.3 switch=n enabled=y phases=3 Linecode=unknown_linecode_3
New Line.line24 Units=km Length=0.022 bus1=25.1.2.3 bus2=0970.1.2.3 switch=n enabled=y phases=3 Linecode=unknown_linecode_3
New Line.line25 Units=km Length=0.003 bus1=27.1.2.3 bus2=0971.1.2.3 switch=n enabled=y phases=3 Linecode=unknown_linecode_3
New Line.line26 Units=km Length=0.019039999999999998 bus1=11.1.2.3 bus2=28.1.2.3 switch=n enabled=y phases=3 Linecode=unknown_linecode_3
New Line.line27 Units=km Length=0.001 bus1=28.1.2.3 bus2=0972.1.2.3 switch=n enabled=y phases=3 Linecode=unknown_linecode_3
New Line.line28 Units=km Length=0.0025 bus1=18.1.2.3 bus2=0973.1.2.3 switch=n enabled=y phases=3 Linecode=unknown_linecode_3
New Line.line29 Units=km Length=0.0162 bus1=11.1.2.3 bus2=0974.1.2.3 switch=n enabled=y phases=3 Linecode=25AL_ABC_3
New Line.line3 Units=km Length=0.034530000000000005 bus1=10.1.2.3 bus2=11.1.2.3 switch=n enabled=y phases=3 Linecode=66_HDCU_(19/2.11)_3
New Line.line30 Units=km Length=0.01939 bus1=27.1.2.3 bus2=0975.1.2.3 switch=n enabled=y phases=3 Linecode=unknown_linecode_3
New Line.line31 Units=km Length=0.002 bus1=29.1.2.3 bus2=0976.1.2.3 switch=n enabled=y phases=3 Linecode=unknown_linecode_3
New Line.line32 Units=km Length=0.01587 bus1=19.1.2.3 bus2=0977.1.2.3 switch=n enabled=y phases=3 Linecode=25AL_ABC_3
New Line.line33 Units=km Length=0.01645 bus1=20.1.2.3 bus2=0978.1.2.3 switch=n enabled=y phases=3 Linecode=25AL_ABC_3
New Line.line34 Units=km Length=0.02205 bus1=14.1.2.3 bus2=0979.1.2.3 switch=n enabled=y phases=3 Linecode=25AL_ABC_3
New Line.line4 Units=km Length=0.0221 bus1=11.1.2.3 bus2=12.1.2.3 switch=n enabled=y phases=3 Linecode=66_HDCU_(19/2.11)_3
New Line.line5 Units=km Length=0.020350000000000004 bus1=12.1.2.3 bus2=13.1.2.3 switch=n enabled=y phases=3 Linecode=66_HDCU_(19/2.11)_3
New Line.line6 Units=km Length=0.00135 bus1=13.1.2.3 bus2=14.1.2.3 switch=n enabled=y phases=3 Linecode=66_HDCU_(19/2.11)_3
New Line.line7 Units=km Length=0.04448 bus1=14.1.2.3 bus2=15.1.2.3 switch=n enabled=y phases=3 Linecode=unknown_linecode_3
New Line.line8 Units=km Length=0.027350000000000003 bus1=15.1.2.3 bus2=16.1.2.3 switch=n enabled=y phases=3 Linecode=unknown_linecode_3
New Line.line9 Units=km Length=0.038509999999999996 bus1=16.1.2.3 bus2=17.1.2.3 switch=n enabled=y phases=3 Linecode=unknown_linecode_3
